/*--------------------------------*- C++ -*----------------------------------*\
| =========                 |                                                 |
| \\      /  F ield         | OpenFOAM: The Open Source CFD Toolbox           |
|  \\    /   O peration     | Version:  v2012                                 |
|   \\  /    A nd           | Website:  www.openfoam.com                      |
|    \\/     M anipulation  |                                                 |
\*---------------------------------------------------------------------------*/
FoamFile
{
    version     2.0;
    format      ascii;
    class       polyBoundaryMesh;
    location    "constant/polyMesh";
    object      boundary;
}
// * * * * * * * * * * * * * * * * * * * * * * * * * * * * * * * * * * * * * //

7
(
    frontback
    {
        type            empty;
        inGroups        1(empty);
        nFaces          27834;
        startFace       20673;
    }
    topbottom
    {
        type            patch;
        physicalType    patch;
        nFaces          38;
        startFace       48507;
    }
    outlet
    {
        type            patch;
        physicalType    patch;
        nFaces          0;
        startFace       48545;
    }
    inlet
    {
        type            patch;
        physicalType    patch;
        nFaces          34;
        startFace       48545;
    }
    walls
    {
        type            wall;
        inGroups        1(wall);
        nFaces          151;
        startFace       48579;
    }
    procBoundary2to0
    {
        type            processor;
        inGroups        1(processor);
        nFaces          83;
        startFace       48730;
        matchTolerance  0.0001;
        transform       unknown;
        myProcNo        2;
        neighbProcNo    0;
    }
    procBoundary2to3
    {
        type            processor;
        inGroups        1(processor);
        nFaces          99;
        startFace       48813;
        matchTolerance  0.0001;
        transform       unknown;
        myProcNo        2;
        neighbProcNo    3;
    }
)

// ************************************************************************* //
