/*--------------------------------*- C++ -*----------------------------------*\
| =========                 |                                                 |
| \\      /  F ield         | OpenFOAM: The Open Source CFD Toolbox           |
|  \\    /   O peration     | Version:  v2012                                 |
|   \\  /    A nd           | Website:  www.openfoam.com                      |
|    \\/     M anipulation  |                                                 |
\*---------------------------------------------------------------------------*/
FoamFile
{
    version     2.0;
    format      ascii;
    class       polyBoundaryMesh;
    location    "constant/polyMesh";
    object      boundary;
}
// * * * * * * * * * * * * * * * * * * * * * * * * * * * * * * * * * * * * * //

7
(
    frontback
    {
        type            empty;
        inGroups        1(empty);
        nFaces          27702;
        startFace       20537;
    }
    topbottom
    {
        type            patch;
        physicalType    patch;
        nFaces          96;
        startFace       48239;
    }
    outlet
    {
        type            patch;
        physicalType    patch;
        nFaces          34;
        startFace       48335;
    }
    inlet
    {
        type            patch;
        physicalType    patch;
        nFaces          0;
        startFace       48369;
    }
    walls
    {
        type            wall;
        inGroups        1(wall);
        nFaces          45;
        startFace       48369;
    }
    procBoundary3to1
    {
        type            processor;
        inGroups        1(processor);
        nFaces          205;
        startFace       48414;
        matchTolerance  0.0001;
        transform       unknown;
        myProcNo        3;
        neighbProcNo    1;
    }
    procBoundary3to2
    {
        type            processor;
        inGroups        1(processor);
        nFaces          99;
        startFace       48619;
        matchTolerance  0.0001;
        transform       unknown;
        myProcNo        3;
        neighbProcNo    2;
    }
)

// ************************************************************************* //
