/*--------------------------------*- C++ -*----------------------------------*\
| =========                 |                                                 |
| \\      /  F ield         | OpenFOAM: The Open Source CFD Toolbox           |
|  \\    /   O peration     | Version:  v2012                                 |
|   \\  /    A nd           | Website:  www.openfoam.com                      |
|    \\/     M anipulation  |                                                 |
\*---------------------------------------------------------------------------*/
FoamFile
{
    version     2.0;
    format      ascii;
    class       polyBoundaryMesh;
    location    "constant/polyMesh";
    object      boundary;
}
// * * * * * * * * * * * * * * * * * * * * * * * * * * * * * * * * * * * * * //

7
(
    frontback
    {
        type            empty;
        inGroups        1(empty);
        nFaces          28630;
        startFace       21222;
    }
    topbottom
    {
        type            patch;
        physicalType    patch;
        nFaces          38;
        startFace       49852;
    }
    outlet
    {
        type            patch;
        physicalType    patch;
        nFaces          0;
        startFace       49890;
    }
    inlet
    {
        type            patch;
        physicalType    patch;
        nFaces          34;
        startFace       49890;
    }
    walls
    {
        type            wall;
        inGroups        1(wall);
        nFaces          198;
        startFace       49924;
    }
    procBoundary0to1
    {
        type            processor;
        inGroups        1(processor);
        nFaces          101;
        startFace       50122;
        matchTolerance  0.0001;
        transform       unknown;
        myProcNo        0;
        neighbProcNo    1;
    }
    procBoundary0to2
    {
        type            processor;
        inGroups        1(processor);
        nFaces          130;
        startFace       50223;
        matchTolerance  0.0001;
        transform       unknown;
        myProcNo        0;
        neighbProcNo    2;
    }
)

// ************************************************************************* //
