/*--------------------------------*- C++ -*----------------------------------*\
| =========                 |                                                 |
| \\      /  F ield         | OpenFOAM: The Open Source CFD Toolbox           |
|  \\    /   O peration     | Version:  v2012                                 |
|   \\  /    A nd           | Website:  www.openfoam.com                      |
|    \\/     M anipulation  |                                                 |
\*---------------------------------------------------------------------------*/
FoamFile
{
    version     2.0;
    format      ascii;
    class       polyBoundaryMesh;
    location    "constant/polyMesh";
    object      boundary;
}
// * * * * * * * * * * * * * * * * * * * * * * * * * * * * * * * * * * * * * //

7
(
    frontback
    {
        type            empty;
        inGroups        1(empty);
        nFaces          27702;
        startFace       20580;
    }
    topbottom
    {
        type            patch;
        physicalType    patch;
        nFaces          38;
        startFace       48282;
    }
    outlet
    {
        type            patch;
        physicalType    patch;
        nFaces          0;
        startFace       48320;
    }
    inlet
    {
        type            patch;
        physicalType    patch;
        nFaces          33;
        startFace       48320;
    }
    walls
    {
        type            wall;
        inGroups        1(wall);
        nFaces          135;
        startFace       48353;
    }
    procBoundary0to1
    {
        type            processor;
        inGroups        1(processor);
        nFaces          104;
        startFace       48488;
        matchTolerance  0.0001;
        transform       unknown;
        myProcNo        0;
        neighbProcNo    1;
    }
    procBoundary0to2
    {
        type            processor;
        inGroups        1(processor);
        nFaces          83;
        startFace       48592;
        matchTolerance  0.0001;
        transform       unknown;
        myProcNo        0;
        neighbProcNo    2;
    }
)

// ************************************************************************* //
