/*--------------------------------*- C++ -*----------------------------------*\
  =========                 |
  \\      /  F ield         | OpenFOAM: The Open Source CFD Toolbox
   \\    /   O peration     | Website:  https://openfoam.org
    \\  /    A nd           | Version:  6
     \\/     M anipulation  |
\*---------------------------------------------------------------------------*/
FoamFile
{
    version     2.0;
    format      ascii;
    class       dictionary;
    location    "system";
    object      fvSchemes;
}
// * * * * * * * * * * * * * * * * * * * * * * * * * * * * * * * * * * * * * //

ddtSchemes
{
    default         CrankNicolson 0.9; 
}

gradSchemes
{
    default         Gauss linear;
    grad(U)        Gauss linear;
}

divSchemes
{
    default         none;
    div(phi,U)      Gauss linearUpwind grad(U);
    div(phi,k)      Gauss limitedLinear 1;
    div(phi,epsilon)  Gauss limitedLinear 1;
    div((nuEff*dev2(T(grad(U))))) Gauss linear;
}


laplacianSchemes
{
    default         Gauss linear limited corrected 0.5;
}



interpolationSchemes
{
    default         linear;
}

snGradSchemes
{
    default         corrected;
}
wallDist
{
    method meshWave;
}


// ************************************************************************* //
