/*--------------------------------*- C++ -*----------------------------------*\
| =========                 |                                                 |
| \\      /  F ield         | OpenFOAM: The Open Source CFD Toolbox           |
|  \\    /   O peration     | Version:  v2012                                 |
|   \\  /    A nd           | Website:  www.openfoam.com                      |
|    \\/     M anipulation  |                                                 |
\*---------------------------------------------------------------------------*/
FoamFile
{
    version     2.0;
    format      ascii;
    class       polyBoundaryMesh;
    location    "constant/polyMesh";
    object      boundary;
}
// * * * * * * * * * * * * * * * * * * * * * * * * * * * * * * * * * * * * * //

7
(
    frontback
    {
        type            empty;
        inGroups        1(empty);
        nFaces          27498;
        startFace       20392;
    }
    topbottom
    {
        type            patch;
        physicalType    patch;
        nFaces          96;
        startFace       47890;
    }
    outlet
    {
        type            patch;
        physicalType    patch;
        nFaces          34;
        startFace       47986;
    }
    inlet
    {
        type            patch;
        physicalType    patch;
        nFaces          0;
        startFace       48020;
    }
    walls
    {
        type            wall;
        inGroups        1(wall);
        nFaces          43;
        startFace       48020;
    }
    procBoundary1to0
    {
        type            processor;
        inGroups        1(processor);
        nFaces          106;
        startFace       48063;
        matchTolerance  0.0001;
        transform       unknown;
        myProcNo        1;
        neighbProcNo    0;
    }
    procBoundary1to3
    {
        type            processor;
        inGroups        1(processor);
        nFaces          184;
        startFace       48169;
        matchTolerance  0.0001;
        transform       unknown;
        myProcNo        1;
        neighbProcNo    3;
    }
)

// ************************************************************************* //
