/*--------------------------------*- C++ -*----------------------------------*\
| =========                 |                                                 |
| \\      /  F ield         | OpenFOAM: The Open Source CFD Toolbox           |
|  \\    /   O peration     | Version:  v2012                                 |
|   \\  /    A nd           | Website:  www.openfoam.com                      |
|    \\/     M anipulation  |                                                 |
\*---------------------------------------------------------------------------*/
FoamFile
{
    version     2.0;
    format      ascii;
    class       polyBoundaryMesh;
    location    "constant/polyMesh";
    object      boundary;
}
// * * * * * * * * * * * * * * * * * * * * * * * * * * * * * * * * * * * * * //

7
(
    frontback
    {
        type            empty;
        inGroups        1(empty);
        nFaces          27498;
        startFace       20424;
    }
    topbottom
    {
        type            patch;
        physicalType    patch;
        nFaces          38;
        startFace       47922;
    }
    outlet
    {
        type            patch;
        physicalType    patch;
        nFaces          0;
        startFace       47960;
    }
    inlet
    {
        type            patch;
        physicalType    patch;
        nFaces          33;
        startFace       47960;
    }
    walls
    {
        type            wall;
        inGroups        1(wall);
        nFaces          115;
        startFace       47993;
    }
    procBoundary2to0
    {
        type            processor;
        inGroups        1(processor);
        nFaces          105;
        startFace       48108;
        matchTolerance  0.0001;
        transform       unknown;
        myProcNo        2;
        neighbProcNo    0;
    }
    procBoundary2to3
    {
        type            processor;
        inGroups        1(processor);
        nFaces          108;
        startFace       48213;
        matchTolerance  0.0001;
        transform       unknown;
        myProcNo        2;
        neighbProcNo    3;
    }
)

// ************************************************************************* //
