/*--------------------------------*- C++ -*----------------------------------*\
| =========                 |                                                 |
| \\      /  F ield         | OpenFOAM: The Open Source CFD Toolbox           |
|  \\    /   O peration     | Version:  v2012                                 |
|   \\  /    A nd           | Website:  www.openfoam.com                      |
|    \\/     M anipulation  |                                                 |
\*---------------------------------------------------------------------------*/
FoamFile
{
    version     2.0;
    format      ascii;
    class       polyBoundaryMesh;
    location    "constant/polyMesh";
    object      boundary;
}
// * * * * * * * * * * * * * * * * * * * * * * * * * * * * * * * * * * * * * //

7
(
    frontback
    {
        type            empty;
        inGroups        1(empty);
        nFaces          27452;
        startFace       20386;
    }
    topbottom
    {
        type            patch;
        physicalType    patch;
        nFaces          38;
        startFace       47838;
    }
    outlet
    {
        type            patch;
        physicalType    patch;
        nFaces          0;
        startFace       47876;
    }
    inlet
    {
        type            patch;
        physicalType    patch;
        nFaces          33;
        startFace       47876;
    }
    walls
    {
        type            wall;
        inGroups        1(wall);
        nFaces          90;
        startFace       47909;
    }
    procBoundary2to0
    {
        type            processor;
        inGroups        1(processor);
        nFaces          130;
        startFace       47999;
        matchTolerance  0.0001;
        transform       unknown;
        myProcNo        2;
        neighbProcNo    0;
    }
    procBoundary2to3
    {
        type            processor;
        inGroups        1(processor);
        nFaces          115;
        startFace       48129;
        matchTolerance  0.0001;
        transform       unknown;
        myProcNo        2;
        neighbProcNo    3;
    }
)

// ************************************************************************* //
