/*--------------------------------*- C++ -*----------------------------------*\
| =========                 |                                                 |
| \\      /  F ield         | OpenFOAM: The Open Source CFD Toolbox           |
|  \\    /   O peration     | Version:  v2012                                 |
|   \\  /    A nd           | Website:  www.openfoam.com                      |
|    \\/     M anipulation  |                                                 |
\*---------------------------------------------------------------------------*/
FoamFile
{
    version     2.0;
    format      ascii;
    class       polyBoundaryMesh;
    location    "constant/polyMesh";
    object      boundary;
}
// * * * * * * * * * * * * * * * * * * * * * * * * * * * * * * * * * * * * * //

7
(
    frontback
    {
        type            empty;
        inGroups        1(empty);
        nFaces          27452;
        startFace       20362;
    }
    topbottom
    {
        type            patch;
        physicalType    patch;
        nFaces          96;
        startFace       47814;
    }
    outlet
    {
        type            patch;
        physicalType    patch;
        nFaces          34;
        startFace       47910;
    }
    inlet
    {
        type            patch;
        physicalType    patch;
        nFaces          0;
        startFace       47944;
    }
    walls
    {
        type            wall;
        inGroups        1(wall);
        nFaces          37;
        startFace       47944;
    }
    procBoundary1to0
    {
        type            processor;
        inGroups        1(processor);
        nFaces          101;
        startFace       47981;
        matchTolerance  0.0001;
        transform       unknown;
        myProcNo        1;
        neighbProcNo    0;
    }
    procBoundary1to3
    {
        type            processor;
        inGroups        1(processor);
        nFaces          186;
        startFace       48082;
        matchTolerance  0.0001;
        transform       unknown;
        myProcNo        1;
        neighbProcNo    3;
    }
)

// ************************************************************************* //
